# generated using pymatgen
data_Ti3(CO)2
_symmetry_space_group_name_H-M   'P 1'
_cell_length_a   3.03861115
_cell_length_b   3.03861115
_cell_length_c   14.90565766
_cell_angle_alpha   90.00000000
_cell_angle_beta   90.00000000
_cell_angle_gamma   119.99996767
_symmetry_Int_Tables_number   1
_chemical_formula_structural   Ti3(CO)2
_chemical_formula_sum   'Ti3 C2 O2'
_cell_volume   119.18790033
_cell_formula_units_Z   1
loop_
 _symmetry_equiv_pos_site_id
 _symmetry_equiv_pos_as_xyz
  1  'x, y, z'
loop_
 _atom_site_type_symbol
 _atom_site_label
 _atom_site_symmetry_multiplicity
 _atom_site_fract_x
 _atom_site_fract_y
 _atom_site_fract_z
 _atom_site_occupancy
  Ti  Ti0  1  0.66666700  0.33333300  0.32662338  1
  Ti  Ti1  1  0.33333300  0.66666700  0.67337662  1
  Ti  Ti2  1  -0.00000000  -0.00000000  0.50000000  1
  C  C3  1  0.33333300  0.66666700  0.41800699  1
  C  C4  1  0.66666700  0.33333300  0.58199301  1
  O  O5  1  0.33333300  0.66666700  0.26120536  1
  O  O6  1  0.66666700  0.33333300  0.73879464  1
